myETL/UCT_Source/20221102_1230_FO3_AT0.uct
##C 2007.05.01
##C TSO: APG, AUSTRIAN POWER GRID AG
Operational Planning Department: 24/7 D2CF/DACF/IDCF/SN
Mail: operational-planning@apg.at; Phone contact: 00435032053251
Generated by forecast tool SYNAPSE

##C----Knoteninformationen--------------------------------------------------------
         1         2         3         4         5         6         7         8         9        10        11
12345678901234567890123456789012345678901234567890123456789012345678901234567890123456789012345678901234567890
<Knoten> <Knotenname> * * < Spg> <PLast> <QLast> <PEin > <QEin > <PMin > <PMax > <QMin > <QMax > <Sta> <PPrim>
##N 
##ZAT
O6MNGN21 Meiningen    0 2 240.87 64.4458 6.22065 -9.2500 0.00000 0.00000 -117.00 200.000 -200.00 
O6MNGN22 Meiningen    0 0        64.4458 15.7629 -9.2500 0.00000 0.00000 -117.00 15.7629 0.00000 
O6WALG21 Walgauwerk   0 2 240.57 .000000 5.05500 0.00000 0.00000 0.00000 -86.000 200.000 -200.00 
O6WERB21 Werben       0 2 241.81 187.748 .000000 -9.2500 -34.145 0.00000 -183.00 200.000 -200.00 
O6WERB22 Werben       0 0        .000000 .000000 -9.2500 -77.160 0.00000 -183.00 0.00000 -77.160 
O9KIRB21 Kirchbichl   0 0        204.186 .000000 -67.620 -45.354 0.00000 -243.97 0.00000 -45.354 
O9PRUT21 Prutz        0 2 241.06 47.2069 42.6038 -30.400 0.00000 0.00000 -431.00 400.000 -400.00 
O9STRA21 Strass       0 0        .000000 .000000 0.00000 0.00000 0.00000 0.00000 0.00000 0.00000 
O9THAU21 Thaur        0 0        40.3628 42.7537 -13.260 0.00000 0.00000 -136.91 42.7537 0.00000 
O9VILL21 Vill         0 2 241.19 76.4248 .000000 -15.760 -13.259 0.00000 -77.640 200.000 -200.00 
O9YVIL21 Y_Vill       0 0        .000000 .000000 0.00000 0.00000 0.00000 0.00000 0.00000 0.00000 
O9YVIL22 Y_Vill       0 0        .000000 .000000 0.00000 0.00000 0.00000 0.00000 0.00000 0.00000 
OABW  51 AbwindenAste 0 0        16.8868 .000000 -80.364 0.00000 0.00000 -176.97 0.00000 0.00000 
OABW  52 AbwindenAste 0 0        .000000 .000000 0.00000 0.00000 0.00000 0.00000 0.00000 0.00000 
OAIGER51 Aigerding    0 0        23.2974 .000000 -1.9774 0.00000 0.00000 -8.2876 0.00000 0.00000 
OALTEN21 Altenwoerth  0 0        .000000 4.81487 -51.000 0.00000 0.00000 -333.00 4.81487 0.00000 
OALTEN22 Altenwoerth  0 0        .000000 3.25983 -51.000 0.00000 0.00000 -333.00 3.25983 0.00000 
OALTEN23 Altenwoerth  0 0        .000000 2.27636 -51.000 0.00000 0.00000 -333.00 2.27636 0.00000 
OAMSCH51 AmSchuss     0 0        9.31333 .000000 -2.6037 0.00000 0.00000 -10.028 0.00000 0.00000 
OAMSTE51 Amstetten    0 0        85.3818 .000000 -6.2307 0.00000 0.00000 -23.511 0.00000 0.00000 
OAMSTE52 Amstetten    0 0        .000000 .000000 0.00000 0.00000 0.00000 0.00000 0.00000 0.00000 
OANDAU51 Andau        0 0        .000000 .000000 -16.590 0.00000 0.00000 -247.53 0.00000 0.00000 
OANNAB51 Annaberg     0 0        .000000 .000000 -2.6626 0.00000 0.00000 -25.722 0.00000 0.00000 
OANTHI51 Anthiesenhof 0 0        12.2049 .000000 -2.7863 0.00000 0.00000 -12.409 0.00000 0.00000 
OARTHU51 Arthurwerk   0 0        .000000 .000000 -5.0000 0.00000 0.00000 -40.000 0.00000 0.00000 
OASCHA21 Aschach      0 0        .000000 11.8143 -116.00 0.00000 0.00000 -288.00 11.8143 0.00000 
OASPER51 Aspern       0 0        .000000 .000000 0.00000 0.00000 0.00000 0.00000 0.00000 0.00000 
OAUEN 51 Auen         0 0        49.0531 .000000 -9.2419 0.00000 0.00000 -45.373 0.00000 0.00000 
OAUEN 52 Auen         0 0        39.2425 .000000 0.00000 0.00000 0.00000 0.00000 0.00000 0.00000 
OAUSSE51 Ausserfragan 0 0        .000000 .000000 -213.99 0.00000 235.200 -500.04 0.00000 0.00000 
OAUSSE52 Ausserfragan 0 0        .000000 .000000 0.00000 0.00000 0.00000 0.00000 0.00000 0.00000 
OBADEN51 Baden        0 0        .000000 .000000 0.00000 0.00000 0.00000 0.00000 0.00000 0.00000 
OBAUMK51 Baumkirchen  0 0        150.573 .000000 -35.546 0.00000 .781572 -211.58 0.00000 0.00000 
OBAUMK52 Baumkirchen  0 0        .000000 .000000 0.00000 0.00000 0.00000 0.00000 0.00000 0.00000 
OBAUSS51 BadAussee    0 0        8.33044 .000000 -.04032 0.00000 0.00000 -.23968 0.00000 0.00000 
OBERGE51 Bergern      0 0        .000000 .000000 -33.000 0.00000 0.00000 -63.000 0.00000 0.00000 
OBERGE52 Bergern      0 0        .000000 .000000 -66.000 0.00000 0.00000 -126.00 0.00000 0.00000 
OBISAM11 Bisamberg    0 0        .000000 8.36394 0.00000 0.00000 0.00000 0.00000 8.36394 0.00000 
OBISAM12 Bisamberg    0 0        .000000 42.4256 0.00000 0.00000 0.00000 0.00000 42.4256 0.00000 
OBISAM21 Bisamberg    0 0        .000000 29.5412 0.00000 0.00000 0.00000 0.00000 29.5412 0.00000 
OBISAM22 Bisamberg    0 0        .000000 .000000 0.00000 0.00000 0.00000 0.00000 0.00000 0.00000 
OBISAM51 Bisamberg    0 0        .000000 .000000 0.00000 0.00000 0.00000 0.00000 0.00000 0.00000 
OBISAM52 Bisamberg    0 0        18.2494 .000000 -5.3437 0.00000 0.00000 -46.729 0.00000 0.00000 
OBISAM54 Bisamberg    0 0        .000000 .000000 0.00000 0.00000 0.00000 0.00000 0.00000 0.00000 
OBISAM55 Bisamberg    0 0        .000000 .000000 0.00000 0.00000 0.00000 0.00000 0.00000 0.00000 
OBISAM56 Bisamberg    0 0        .000000 .000000 0.00000 0.00000 0.00000 0.00000 0.00000 0.00000 
OBOCKF51 Bockfliess   0 0        .000000 .000000 -4.4027 0.00000 0.00000 -53.565 0.00000 0.00000 
OBRAUN51 Braunau      0 0        .000000 .000000 -22.000 0.00000 0.00000 -48.000 0.00000 0.00000 
OBRAUN52 Braunau      0 0        .000000 .000000 0.00000 0.00000 0.00000 0.00000 0.00000 0.00000 
OBRUCK51 BruckLeitha  0 0        20.3708 .000000 -7.8153 0.00000 0.00000 -97.488 0.00000 0.00000 
OBRUEC51 Brueckl      0 0        35.7763 .000000 -3.7249 0.00000 0.00000 -15.773 0.00000 0.00000 
OBRUEC52 Brueckl      0 0        .000000 .000000 0.00000 0.00000 0.00000 0.00000 0.00000 0.00000 
ODEUTS51 DeutschAlten 0 0        .000000 .000000 0.00000 0.00000 0.00000 0.00000 0.00000 0.00000 
ODEUTS52 DeutschAlten 0 0        5.17227 .000000 -4.0796 0.00000 0.00000 -50.578 0.00000 0.00000 
ODONST51 Donaustadt   0 0        .000000 .000000 -404.50 0.00000 0.00000 -434.50 0.00000 0.00000 
ODUERN11 Duernrohr    0 3 414.28 .000000 .000000 0.00000 -16.735 0.00000 0.00000                 
ODUERN12 Duernrohr    0 0        .000000 .000000 0.00000 0.00000 0.00000 0.00000 0.00000 0.00000 
ODUERN13 Duernrohr    0 0        .000000 .000000 0.00000 0.00000 0.00000 0.00000 0.00000 0.00000 
ODUERN21 Duernrohr    0 0        .000000 87.1787 0.00000 0.00000 0.00000 0.00000 87.1787 0.00000 
ODUERN22 Duernrohr    0 0        .000000 91.5606 0.00000 0.00000 0.00000 0.00000 91.5606 0.00000 
ODUERN51 Duernrohr    0 0        34.5884 .000000 -5.1433 0.00000 0.00000 -28.779 0.00000 0.00000 
ODUERN52 Duernrohr    0 0        .000000 .000000 -11.000 0.00000 0.00000 -37.000 0.00000 0.00000 
OEBENF51 Ebenfurth    0 0        .000000 .000000 0.00000 0.00000 0.00000 0.00000 0.00000 0.00000 
OEBENF52 Ebenfurth    0 0        .000000 .000000 0.00000 0.00000 0.00000 0.00000 0.00000 0.00000 
OEBREI51 Ebreichsdorf 0 0        .000000 .000000 0.00000 0.00000 0.00000 0.00000 0.00000 0.00000 
OEDLIN21 Edling       0 0        .000000 1.68936 -12.000 0.00000 0.00000 -86.000 1.68936 0.00000 
OEFERD51 Eferding     0 0        39.8835 .000000 -1.9556 0.00000 0.00000 -8.2663 0.00000 0.00000 
OEGGEN51 Eggenburg    0 0        23.2734 .000000 -.94570 0.00000 0.00000 -3.8317 0.00000 0.00000 
OEGGLF51 Egglfing     0 0        .000000 .000000 -42.000 0.00000 0.00000 -84.000 0.00000 0.00000 
OEIBES51 Eibesbrunn   0 0        19.4450 .000000 -13.782 0.00000 0.00000 -148.97 0.00000 0.00000 
OEIBES52 Eibesbrunn   0 0        .000000 .000000 0.00000 0.00000 0.00000 0.00000 0.00000 0.00000 
OEISEN51 Eisenstadt   0 2 113.30 37.3977 .000000 -3.4079 0.00000 0.00000 -15.204 100.000 -100.00 
OENNSI51 EnnsIndustri 0 0        19.0062 .000000 -.07968 0.00000 0.00000 -.32882 0.00000 0.00000 
OENZF 51 Enzesfeld    0 0        .000000 .000000 0.00000 0.00000 0.00000 0.00000 0.00000 0.00000 
OERING51 Ering        0 0        .000000 .000000 -36.000 0.00000 0.00000 -75.000 0.00000 0.00000 
OERLAU51 Erlauf       0 0        49.1801 .000000 -6.9091 0.00000 0.00000 -27.613 0.00000 0.00000 
OERNST11 Ernsthofen   0 0        .000000 .000000 0.00000 -8.5520 0.00000 0.00000 .000000 -8.5520 
OERNST21 Ernsthofen   0 2 243.63 .000000 103.224 0.00000 0.00000 0.00000 0.00000 300.000 -300.00 
OERNST22 Ernsthofen   0 0        .000000 .000000 0.00000 0.00000 0.00000 0.00000 0.00000 0.00000 
OERNST51 Ernsthofen   0 0        .000000 19.3332 0.00000 0.00000 0.00000 0.00000 19.3332 0.00000 
OERNST52 Ernsthofen   0 0        .000000 19.3333 0.00000 0.00000 0.00000 0.00000 19.3333 0.00000 
OERNST53 Ernsthofen   0 0        26.5882 19.3332 -11.409 0.00000 0.00000 -41.433 19.3332 0.00000 
OETZER11 Etzersdorf   0 0        .000000 .000000 0.00000 -86.903 0.00000 0.00000 0.00000 -86.903 
OFEIST21 Feistritz    0 0        .000000 7.44377 -20.000 0.00000 0.00000 -88.000 7.44377 0.00000 
OFRANK51 Frankenmarkt 0 0        19.2677 .000000 -2.0354 0.00000 0.00000 -8.7846 0.00000 0.00000 
OFRANZ51 Franzosenhau 0 0        4.10481 .000000 -.47211 0.00000 0.00000 -1.9128 0.00000 0.00000 
OFREIS51 Freistadt    0 0        19.0062 .000000 -7.6067 0.00000 0.00000 -69.125 0.00000 0.00000 
OFRIEN51 Friensdorf   0 0        19.0062 .000000 -3.5884 0.00000 0.00000 -15.343 0.00000 0.00000 
OFRIEN52 Friensdorf   0 0        .000000 .000000 0.00000 0.00000 0.00000 0.00000 0.00000 0.00000 
OGAENS51 Gaenserndorf 0 0        38.6314 .000000 -7.3696 0.00000 0.00000 -44.139 0.00000 0.00000 
OGAENS52 Gaenserndorf 0 0        .000000 .000000 0.00000 0.00000 0.00000 0.00000 0.00000 0.00000 
OGAILI51 Gailitz      0 0        9.81063 .000000 0.00000 0.00000 0.00000 0.00000 0.00000 0.00000 
OGAILI52 Gailitz      0 0        .000000 .000000 0.00000 0.00000 0.00000 0.00000 0.00000 0.00000 
OGARST51 Garsten      0 0        .000000 .000000 0.00000 0.00000 0.00000 -34.200 0.00000 0.00000 
OGAWEI51 Gaweinstal   0 0        28.4804 .000000 -17.707 0.00000 0.00000 -259.73 0.00000 0.00000 
OGERAS51 Gerasdorf    0 0        .000000 .000000 0.00000 0.00000 0.00000 0.00000 0.00000 0.00000 
OGERAS52 Gerasdorf    0 0        .000000 .000000 0.00000 0.00000 0.00000 0.00000 0.00000 0.00000 
OGERLO11 Gerlos       0 0        .000000 .000000 0.00000 0.00000 0.00000 -135.00 0.00000 0.00000 
OGERST51 Gerstl       0 0        21.6996 .000000 -7.0933 0.00000 0.00000 -26.628 0.00000 0.00000 
OGMUND51 Gmunden      0 0        38.8952 .000000 -3.1928 0.00000 0.00000 -28.517 0.00000 0.00000 
OGREST51 Gresten      0 0        22.9209 .000000 -6.2135 0.00000 0.00000 -28.338 0.00000 0.00000 
OGREST52 Gresten      0 0        .000000 .000000 0.00000 0.00000 0.00000 0.00000 0.00000 0.00000 
OGREUT21 Greuth       0 0        .000000 .000000 0.00000 0.00000 0.00000 0.00000 0.00000 0.00000 
OGREUT41 Greuth       0 0        .000000 .000000 0.00000 -.00013 0.00000 0.00000 .000000 -.00013 
OGREUT42 Greuth       0 0        .000000 .000134 0.00000 0.00000 0.00000 0.00000 .000134 0.00000 
OGRFST21 Greifenstein 0 0        .000000 9.07511 -135.00 0.00000 0.00000 -297.00 9.07511 0.00000 
OGRIK 51 Grieskirchen 0 0        28.5569 .000000 -6.2568 0.00000 0.00000 -26.590 0.00000 0.00000 
OGROSS51 Grossraming  0 0        .000000 .000000 -10.000 0.00000 0.00000 -70.000 0.00000 0.00000 
OGUNDE51 Gundertshaus 0 0        5.22266 .000000 -1.6255 0.00000 0.00000 -6.9599 0.00000 0.00000 
OHAEUS21 Haeusling    0 0        .000000 .000000 -150.00 0.00000 360.000 -360.00 0.00000 0.00000 
OHAUSR21 Hausruck     0 0        .000000 .000000 0.00000 -8.8928 0.00000 0.00000 0.00000 -8.8928 
OHAUSR22 Hausruck     0 0        .000000 .000000 0.00000 0.00000 0.00000 0.00000 0.00000 0.00000 
OHAUSR51 Hausruck     0 0        9.47945 .000000 -3.1413 0.00000 0.00000 -30.366 0.00000 0.00000 
OHAUSR52 Hausruck     0 0        .000000 .000000 0.00000 0.00000 0.00000 0.00000 0.00000 0.00000 
OHAUSR53 Hausruck     0 0        .000000 .000000 0.00000 0.00000 0.00000 0.00000 0.00000 0.00000 
OHAUSR59 Hausruck     0 0        .000000 .000000 0.00000 0.00000 0.00000 0.00000 0.00000 0.00000 
OHESSE21 Hessenberg   0 0        253.876 .000000 -96.145 -48.445 5.11612 -375.21 0.00000 -48.445 
OHOEFL51 Hoeflein     0 0        .000000 .000000 -10.144 0.00000 0.00000 -126.55 0.00000 0.00000 
OHOERS51 Hoersching   0 0        .000000 .000000 0.00000 0.00000 0.00000 0.00000 0.00000 0.00000 
OHOERS52 Hoersching   0 0        .000000 .000000 0.00000 0.00000 0.00000 0.00000 0.00000 0.00000 
OHOHEW51 HoheWand     0 0        112.178 .000000 -4.9749 0.00000 0.00000 -14.200 0.00000 0.00000 
OHOLLA51 Hollabrunn   0 0        25.9165 .000000 -2.2488 0.00000 0.00000 -11.568 0.00000 0.00000 
OHOLLA52 Hollabrunn   0 0        .000000 .000000 0.00000 0.00000 0.00000 0.00000 0.00000 0.00000 
OHORN 51 Horn         0 0        19.8724 .000000 -5.7477 0.00000 0.00000 -18.578 0.00000 0.00000 
OHORN 52 Horn         0 0        .000000 .000000 0.00000 0.00000 0.00000 0.00000 0.00000 0.00000 
OHULI 51 HuetteSued   0 0        260.800 .000000 -200.10 0.00000 0.00000 -365.40 0.00000 0.00000 
OJOCHE21 Jochenstein  0 0        .000000 .000000 -68.000 -19.896 0.00000 -132.00 .000000 -19.896 
OJOCHE51 Jochenstein  0 0        .000000 .000000 0.00000 0.00000 0.00000 0.00000 0.00000 0.00000 
OJOCHE59 Jochenstein  0 0        .000000 .000000 0.00000 0.00000 0.00000 0.00000 0.00000 0.00000 
OKAGRA51 Kagran       0 0        .000000 .000000 0.00000 0.00000 0.00000 0.00000 0.00000 0.00000 
OKAINA11 Kainachtal   0 2 417.44 346.264 48.6947 -330.40 0.00000 3.01800 -850.41 400.000 -400.00 
OKAISE51 KaiserEbersd 0 0        132.184 .000000 -42.000 0.00000 0.00000 -87.000 0.00000 0.00000 
OKAISE52 KaiserEbersd 0 0        .000000 .000000 -42.000 0.00000 0.00000 -87.000 0.00000 0.00000 
OKAMER51 Kamering     0 0        37.6882 .000000 -10.121 0.00000 0.00000 -60.368 0.00000 0.00000 
OKAMER52 Kamering     0 0        .000000 .000000 0.00000 0.00000 0.00000 0.00000 0.00000 0.00000 
OKAPRU11 KaprunHaupts 0 0        168.056 .000000 -255.72 -44.744 263.500 -1182.8 .000000 -44.744 
OKATZB51 Katzbach     0 0        7.88910 .000000 -1.1690 0.00000 0.00000 -4.7850 0.00000 0.00000 
OKENDL11 Kendlerstras 0 0        .000000 .000000 0.00000 0.00000 0.00000 0.00000 0.00000 0.00000 
OKENDL12 Kendlerstras 0 0        .000000 .000000 0.00000 0.00000 0.00000 0.00000 0.00000 0.00000 
OKENDL51 Kendlerstras 0 0        .000000 .000000 0.00000 0.00000 0.00000 0.00000 0.00000 0.00000 
OKENDL52 Kendlerstras 0 0        .000000 .000000 0.00000 0.00000 0.00000 0.00000 0.00000 0.00000 
OKLAGE51 Klagenfurt   0 0        85.2890 .000000 -20.477 0.00000 0.00000 -104.07 0.00000 0.00000 
OKLAGE52 Klagenfurt   0 0        .000000 .000000 0.00000 0.00000 0.00000 0.00000 0.00000 0.00000 
OKLAUS21 Klaus        0 0        .000000 .000000 0.00000 0.00000 0.00000 0.00000 0.00000 0.00000 
OKLAUS22 Klaus        0 0        6.72462 .000000 -1.2600 -2.5879 0.00000 -27.490 .000000 -2.5879 
OKLEDE21 Kledering    0 0        30.0000 .217500 0.00000 0.00000 0.00000 0.00000 .217500 0.00000 
OKLEIN51 Kleinmuenche 0 0        9.24269 .000000 -.06225 0.00000 0.00000 -.24983 0.00000 0.00000 
OKLEIN52 Kleinmuenche 0 0        .000000 .000000 0.00000 0.00000 0.00000 0.00000 0.00000 0.00000 
OKORNE51 Korneuburg   0 0        .000000 .000000 0.00000 0.00000 0.00000 -150.00 0.00000 0.00000 
OKORNE52 Korneuburg   0 0        .000000 .000000 0.00000 0.00000 0.00000 0.00000 0.00000 0.00000 
OKREMM51 Kremsmuenste 0 0        .000000 .000000 0.00000 0.00000 0.00000 0.00000 0.00000 0.00000 
OKREMM52 Kremsmuenste 0 0        .000000 .000000 0.00000 0.00000 0.00000 0.00000 0.00000 0.00000 
OKRONS11 Kronstorf    0 0        .000000 .000000 0.00000 0.00000 0.00000 0.00000 0.00000 0.00000 
OKROW 51 Kronstorf_We 0 0        .000000 .000000 0.00000 0.00000 0.00000 0.00000 0.00000 0.00000 
OKWDUR11 KW Duernrohr 0 0        .000000 23.7715 0.00000 0.00000 0.00000 -332.00 23.7715 0.00000 
OLAA  51 LaaThaya     0 0        12.9384 .000000 -17.398 0.00000 0.00000 -208.97 0.00000 0.00000 
OLAAKI51 Laakirchen   0 0        50.0000 .000000 -9.7102 0.00000 0.00000 -63.511 0.00000 0.00000 
OLANDS51 Landskron    0 0        26.6296 .000000 -9.0934 -.00002 0.00000 -37.735 .000000 -.00002 
OLANDS52 Landskron    0 0        .000000 .000018 0.00000 0.00000 0.00000 0.00000 .000018 0.00000 
OLASDO51 Lassendorf   0 0        23.1052 .000000 -15.000 0.00000 5.00000 -68.000 0.00000 0.00000 
OLASSE51 Lassee       0 0        7.96875 .000000 -1.7164 0.00000 0.00000 -6.1422 0.00000 0.00000 
OLENGA51 Lengau       0 0        3.54519 .000000 -.45683 0.00000 0.00000 -1.8877 0.00000 0.00000 
OLENZI51 Lenzing      0 0        95.0000 .000000 -68.786 0.00000 0.00000 -78.500 0.00000 0.00000 
OLEOND51 Leonding     0 0        8.19981 .000000 -.20625 0.00000 0.00000 -.82775 0.00000 0.00000 
OLEOPO51 Leopoldau    0 0        126.613 .000000 0.00000 0.00000 0.00000 -147.00 0.00000 0.00000 
OLEOPO52 Leopoldau    0 0        .000000 .000000 0.00000 0.00000 0.00000 0.00000 0.00000 0.00000 
OLIENN11 Lienz        0 0        .000000 .000000 0.00000 0.00000 0.00000 0.00000 0.00000 0.00000 
OLIENN21 Lienz        0 0        .000000 90.4089 0.00000 0.00000 0.00000 0.00000 90.4089 0.00000 
OLIENN22 Lienz        0 0        .000000 .000000 0.00000 0.00000 0.00000 0.00000 0.00000 0.00000 
OLIENN51 Lienz        0 0        .000000 .000000 0.00000 0.00000 0.00000 0.00000 0.00000 0.00000 
OLIENN52 Lienz        0 0        26.2173 .000000 -31.117 0.00000 0.00000 -140.62 0.00000 0.00000 
OLIESE51 Lieserhofen  0 0        33.4964 .000000 -1.9005 0.00000 0.00000 -8.6940 0.00000 0.00000 
OLIESE52 Lieserhofen  0 0        .000000 .000000 0.00000 0.00000 0.00000 0.00000 0.00000 0.00000 
OLIESI51 Liesing      0 0        62.3188 .000000 0.00000 0.00000 0.00000 0.00000 0.00000 0.00000 
OLIMBG11 LimbergII    0 0        .000000 75.2354 0.00000 0.00000 480.000 -480.00 75.2354 0.00000 
OLINZC51 LinzCity     0 0        20.2911 .000000 0.00000 0.00000 0.00000 0.00000 0.00000 0.00000 
OLINZI51 LinzIndustri 0 0        10.9726 .000000 -.10013 0.00000 0.00000 -.40183 0.00000 0.00000 
OLINZM51 LinzMitte    0 0        27.8022 .000000 -92.245 0.00000 0.00000 -214.32 0.00000 0.00000 
OLINZM52 LinzMitte    0 0        .000000 .000000 0.00000 0.00000 0.00000 0.00000 0.00000 0.00000 
OLINZN51 LinzNord     0 0        20.2911 .000000 -1.3704 0.00000 0.00000 -5.9086 0.00000 0.00000 
OLINZN52 LinzNord     0 0        .000000 .000000 0.00000 0.00000 0.00000 0.00000 0.00000 0.00000 
OLINZO51 LinzOst      0 0        33.7980 .000000 -.06225 0.00000 0.00000 -.24983 0.00000 0.00000 
OLINZS51 LinzSued     0 0        10.7899 .000000 -1.8364 0.00000 0.00000 -165.46 0.00000 0.00000 
OLINZZ51 LinzZentrum  0 0        26.6204 .000000 -1.2015 0.00000 0.00000 -4.9920 0.00000 0.00000 
OLINZZ52 LinzZentrum  0 0        .000000 .000000 0.00000 0.00000 0.00000 0.00000 0.00000 0.00000 
OLOOSD51 Loosdorf     0 0        16.7851 .000000 -7.3613 0.00000 0.00000 -20.053 0.00000 0.00000 
OLOSEN51 Losenstein   0 0        .000000 .000000 -8.0000 0.00000 0.00000 -40.000 0.00000 0.00000 
OMALTA21 MaltaHauptst 0 0        .000000 32.0394 0.00000 0.00000 145.000 -547.50 32.0394 0.00000 
OMALTA22 MaltaHauptst 0 2 236.79 .000000 .000000 0.00000 -54.185 145.000 -182.50 500.000 -500.00 
OMALTA51 MaltaHauptst 0 0        .000000 .000000 0.00000 0.00000 116.000 -120.00 0.00000 0.00000 
OMALTA52 MaltaHauptst 0 0        .000000 .000000 0.00000 0.00000 0.00000 0.00000 0.00000 0.00000 
OMARCH51 Marchtrenk   0 0        15.9599 .000000 -26.618 0.00000 0.00000 -69.105 0.00000 0.00000 
OMATTE51 Mattersburg  0 0        18.6101 29.0000 -4.9754 0.00000 0.00000 -57.136 29.0000 0.00000 
OMATTI51 Mattighofen  0 0        25.0872 .000000 -3.8286 0.00000 0.00000 -33.137 0.00000 0.00000 
OMAU  51 MaltaUnterst 0 0        .000000 .000000 0.00000 0.00000 0.00000 -42.900 0.00000 0.00000 
OMAUTH51 Mauthausen   0 0        19.0062 .000000 -.29399 0.00000 0.00000 -4.1785 0.00000 0.00000 
OMAYRH21 Mayrhofen    0 2 242.13 .000000 22.5780 0.00000 0.00000 0.00000 0.00000 300.000 -300.00 
OMAYRH22 Mayrhofen    0 0        .000000 .000000 -226.00 -9.1291 0.00000 -367.50 0.00000 -9.1291 
OMELLA11 Mellach      0 0        .000000 .000000 0.00000 -.35849 0.00000 -410.00 0.00000 -.35849 
OMOOSB51 Moosbrunn    0 0        12.4388 .000000 0.00000 0.00000 0.00000 0.00000 0.00000 0.00000 
OMUEHL51 Muehlrading  0 0        .000000 .000000 -4.0000 0.00000 0.00000 -25.600 0.00000 0.00000 
ONEUSI21 NeusiedlSee  0 0        .000000 42.8316 0.00000 -43.368 0.00000 0.00000 42.8316 -43.368 
ONEUSI51 NeusiedlSee  0 0        34.8323 28.9996 -11.841 0.00000 0.00000 -138.44 28.9996 0.00000 
ONEUSI52 NeusiedlSee  0 0        .000000 29.0003 -8.0918 0.00000 0.00000 -120.73 29.0003 0.00000 
OOBERD51 Oberdrauburg 0 0        8.64938 .000000 -2.6540 0.00000 0.00000 -15.418 0.00000 0.00000 
OOBERS11 Obersielach  0 0        .000000 .000000 0.00000 -17.837 0.00000 0.00000 .000000 -17.837 
OOBERS12 Obersielach  0 0        .000000 .000000 0.00000 0.00000 0.00000 0.00000 0.00000 0.00000 
OOBERS21 Obersielach  0 0        .000000 239.392 0.00000 0.00000 0.00000 0.00000 239.392 0.00000 
OOBERS51 Obersielach  0 0        15.4535 .000000 -2.4050 0.00000 0.00000 -11.208 0.00000 0.00000 
OOBERS52 Obersielach  0 0        .000000 .000000 0.00000 0.00000 0.00000 0.00000 0.00000 0.00000 
OOHLSD51 Ohlsdorf     0 0        .000000 .000000 -.23514 0.00000 0.00000 -1.1254 0.00000 0.00000 
OOSTST11 Oststeiermar 0 0        171.914 .000000 -141.63 -11.065 3.03269 -407.32 0.00000 -11.065 
OOTH  51 Ottensheim   0 0        .000000 .000000 -91.000 0.00000 0.00000 -180.00 0.00000 0.00000 
OOTH  52 Ottensheim   0 0        .000000 .000000 0.00000 0.00000 0.00000 0.00000 0.00000 0.00000 
OOTTEN51 Ottenstein   0 0        14.4940 .000000 -.70310 0.00000 0.00000 -57.285 0.00000 0.00000 
OOTTEN52 Ottenstein   0 0        .000000 .000000 0.00000 0.00000 18.4000 0.00000 0.00000 0.00000 
OPARTE51 Partenstein  0 0        12.7621 .000000 -2.6459 0.00000 0.00000 -48.018 0.00000 0.00000 
OPASSA51 Passau       0 0        .000000 .000000 -22.000 0.00000 0.00000 -44.400 0.00000 0.00000 
OPEIGA51 Peigarten    0 0        .000000 .000000 0.00000 0.00000 0.00000 0.00000 0.00000 0.00000 
OPERNH51 Pernhofen    0 0        70.0000 .000000 0.00000 0.00000 0.00000 0.00000 0.00000 0.00000 
OPERNH52 Pernhofen    0 0        .000000 .000000 0.00000 0.00000 0.00000 0.00000 0.00000 0.00000 
OPETER11 StPeter      0 0        .000000 6.66982 0.00000 0.00000 0.00000 0.00000 6.66982 0.00000 
OPETER21 StPeter      0 2 237.75 .000000 89.4652 0.00000 0.00000 0.00000 0.00000 350.000 -350.00 
OPETER22 StPeter      0 0        .000000 29.0479 0.00000 0.00000 0.00000 0.00000 29.0479 0.00000 
OPETER23 StPeter      0 0        .000000 29.0482 0.00000 0.00000 0.00000 0.00000 29.0482 0.00000 
OPETER51 StPeter      0 0        15.8761 .000000 0.00000 0.00000 0.00000 0.00000 0.00000 0.00000 
OPETER52 StPeter      0 0        .000000 .000000 0.00000 0.00000 0.00000 0.00000 0.00000 0.00000 
OPETRO51 Petronell    0 0        6.72564 .000000 0.00000 0.00000 0.00000 0.00000 0.00000 0.00000 
OPETRO52 Petronell    0 0        .000000 .000000 0.00000 0.00000 0.00000 0.00000 0.00000 0.00000 
OPFAND51 Pfandl       0 0        11.3838 .000000 -.16984 0.00000 0.00000 -.82855 0.00000 0.00000 
OPICHL51 Pichling     0 0        .000000 7.91736 -.31950 0.00000 0.00000 -1.2822 7.91736 0.00000 
OPICHL52 Pichling     0 0        .000000 7.91737 0.00000 0.00000 0.00000 0.00000 7.91737 0.00000 
OPOCKI51 Pocking      0 0        64.0817 .000000 -30.000 0.00000 0.00000 -120.40 0.00000 0.00000 
OPODO 51 Pottendorf   0 0        .000000 .000000 0.00000 0.00000 0.00000 0.00000 0.00000 0.00000 
OPOTT 51 Pottenstein  0 0        .000000 .000000 0.00000 0.00000 0.00000 0.00000 0.00000 0.00000 
OPOTT 52 Pottenstein  0 0        .000000 .000000 0.00000 0.00000 0.00000 0.00000 0.00000 0.00000 
OPOTTE11 Pottenbrunn  0 0        .000000 .000000 0.00000 0.00000 0.00000 0.00000 0.00000 0.00000 
OPOTTE51 Pottenbrunn  0 0        .000000 .000000 0.00000 0.00000 0.00000 0.00000 0.00000 0.00000 
OPOTTE52 Pottenbrunn  0 0        59.9066 .000000 -13.731 0.00000 0.00000 -50.437 0.00000 0.00000 
OPOTTE59 Pottenbrunn  0 0        .000000 .000000 0.00000 0.00000 0.00000 0.00000 0.00000 0.00000 
OPROTT51 Prottes      0 0        .000000 .000000 -3.5871 0.00000 0.00000 -43.641 0.00000 0.00000 
OPUCHB51 Puchberg     0 0        21.4963 .000000 -1.4921 0.00000 0.00000 -6.5060 0.00000 0.00000 
OPUCHB52 Puchberg     0 0        .000000 .000000 0.00000 0.00000 0.00000 0.00000 0.00000 0.00000 
OPYHRN21 Phyrn        0 0        3.95566 .000000 -.54000 -5.9272 0.00000 -3.2100 0.00000 -5.9272 
ORAAB 51 Raab         0 0        .000000 .000000 0.00000 0.00000 0.00000 0.00000 0.00000 0.00000 
ORADEN51 Radenthein   0 0        17.1134 .000000 -.92120 0.00000 0.00000 -6.9090 0.00000 0.00000 
ORADEN52 Radenthein   0 0        .000000 .000000 0.00000 0.00000 0.00000 0.00000 0.00000 0.00000 
ORANNA51 Ranna        0 0        15.9782 .000000 -2.1127 0.00000 16.5000 -30.714 0.00000 0.00000 
ORANNA52 Ranna        0 0        .000000 .000000 0.00000 0.00000 0.00000 0.00000 0.00000 0.00000 
ORANSH51 Ranshofen    0 0        33.5800 .000000 0.00000 0.00000 0.00000 0.00000 0.00000 0.00000 
OREGAU51 Regau        0 0        9.27103 .000000 -.40727 0.00000 0.00000 -2.2042 0.00000 0.00000 
OREISS21 KW Reisseck2 0 0        .000000 2.26457 0.00000 0.00000 430.000 -430.00 2.26457 0.00000 
OREISS51 ReisseckKreu 0 0        .000000 .000000 -1.0000 0.00000 20.4000 -142.40 0.00000 0.00000 
OREISS52 ReisseckKreu 0 0        .000000 .000000 0.00000 0.00000 0.00000 0.00000 0.00000 0.00000 
ORIED 51 Ried         0 0        38.9946 .000000 -5.9393 0.00000 0.00000 -24.821 0.00000 0.00000 
ORIED 52 Ried         0 0        .000000 .000000 0.00000 0.00000 0.00000 0.00000 0.00000 0.00000 
ORIEDB51 Riedersbach  0 0        8.98872 .000000 -1.1619 0.00000 0.00000 -4.8445 0.00000 0.00000 
OROHRB51 Rohrbach     0 0        28.0508 .000000 -4.0517 0.00000 0.00000 -19.953 0.00000 0.00000 
OROSEG21 Rosegg       0 0        .000000 23.2000 -20.000 0.00000 0.00000 -80.600 23.2000 0.00000 
OROSEN51 Rosenau      0 0        .000000 .000000 0.00000 0.00000 0.00000 -33.000 0.00000 0.00000 
OROSSB51 Rossbach     0 0        17.2118 .000000 -3.4679 0.00000 0.00000 -16.230 0.00000 0.00000 
OROSSH21 Rosshag      0 0        .000000 .000000 0.00000 0.00000 130.000 -115.00 0.00000 0.00000 
OROSSH22 Rosshag      0 0        .000000 .000000 0.00000 0.00000 130.000 -115.00 0.00000 0.00000 
OSALZA21 Salzach      0 0        266.482 .000000 -34.274 -53.991 0.00000 -249.23 0.00000 -53.991 
OSALZB21 Salzburg     0 0        .000000 .000000 0.00000 0.00000 0.00000 0.00000 0.00000 0.00000 
OSARA 11 Sarasdorf    0 0        .000000 38.2606 0.00000 0.00000 0.00000 0.00000 38.2606 0.00000 
OSARA 12 Sarasdorf    0 0        .000000 .000000 0.00000 0.00000 0.00000 0.00000 0.00000 0.00000 
OSARA 51 Sarasdorf    0 0        .000000 .000000 -5.6135 0.00000 0.00000 -69.594 0.00000 0.00000 
OSARA 52 Sarasdorf    0 0        .000000 .000000 0.00000 0.00000 0.00000 0.00000 0.00000 0.00000 
OSATTL21 Sattledt     0 0        6.32906 .000000 0.00000 -2.3937 0.00000 0.00000 0.00000 -2.3937 
OSCHAE21 Schaerding   0 0        .000000 .000000 -22.000 0.00000 0.00000 -96.000 0.00000 0.00000 
OSCHAE22 Schaerding   0 0        .000000 3.36677 -22.000 0.00000 0.00000 -96.000 3.36677 0.00000 
OSCHAR51 Scharndorf   0 0        .000000 .000000 -14.124 0.00000 0.00000 -175.10 0.00000 0.00000 
OSCHME51 Schmelz      0 0        130.159 .000000 0.00000 0.00000 0.00000 0.00000 0.00000 0.00000 
OSCHOE51 Schoenkirche 0 0        .000000 .000000 0.00000 0.00000 0.00000 0.00000 0.00000 0.00000 
OSCHWA11 Schwarzenbac 0 0        .000000 43.2516 0.00000 0.00000 0.00000 0.00000 43.2516 0.00000 
OSCHWZ51 Schwarzach   0 0        .000000 .000000 0.00000 0.00000 0.00000 0.00000 0.00000 0.00000 
OSIMME11 Simmering    0 0        .000000 .000000 -471.00 0.00000 0.00000 -894.00 0.00000 0.00000 
OSIMME12 Simmering    0 0        .000000 .000000 -259.00 0.00000 0.00000 -274.00 0.00000 0.00000 
OSIMME51 Simmering    0 0        .000000 .000000 0.00000 0.00000 0.00000 -85.000 0.00000 0.00000 
OSIMME52 Simmering    0 0        .000000 .000000 0.00000 0.00000 0.00000 0.00000 0.00000 0.00000 
OSIMME53 Simmering    0 0        .000000 .000000 0.00000 0.00000 0.00000 0.00000 0.00000 0.00000 
OSIMME55 Simmering    0 0        .000000 .000000 -25.000 0.00000 0.00000 -101.50 0.00000 0.00000 
OSPANN51 Spannberg    0 0        .000000 .000000 0.00000 0.00000 0.00000 0.00000 0.00000 0.00000 
OSPANN52 Spannberg    0 0        .000000 .000000 -9.9888 0.00000 0.00000 -121.52 0.00000 0.00000 
OSPITT51 Spittal      0 0        12.9409 .000000 -1.6599 0.00000 0.00000 -6.8583 0.00000 0.00000 
OSTADL51 Stadlau      0 0        126.613 .000000 0.00000 0.00000 0.00000 0.00000 0.00000 0.00000 
OSTADL52 Stadlau      0 0        .000000 .000000 0.00000 0.00000 0.00000 0.00000 0.00000 0.00000 
OSTAND51 StAndrae     0 0        12.8150 .000000 -.29520 0.00000 0.00000 -7.8228 0.00000 0.00000 
OSTAND52 StAndrae     0 0        .000000 .000000 0.00000 0.00000 0.00000 0.00000 0.00000 0.00000 
OSTANI51 Staning      0 0        .000000 .000000 -9.0000 0.00000 0.00000 -45.000 0.00000 0.00000 
OSTEEG51 Steeg        0 0        13.5458 .000000 -.46683 0.00000 0.00000 -2.5708 0.00000 0.00000 
OSTEIK51 Steinkogl    0 0        29.9501 .000000 -1.1205 0.00000 0.00000 -9.6214 0.00000 0.00000 
OSTEIN51 Steinfeld    0 0        11.2601 .000000 -3.0927 0.00000 0.00000 -18.449 0.00000 0.00000 
OSTEYF51 SteyrFischhu 0 0        53.4299 .000000 -5.9165 0.00000 0.00000 -28.776 0.00000 0.00000 
OSTEYM51 Steyrermuehl 0 0        9.00000 .000000 -1.2717 0.00000 0.00000 -50.572 0.00000 0.00000 
OSTEYM52 Steyrermuehl 0 0        .000000 .000000 -7.0000 0.00000 0.00000 -18.000 0.00000 0.00000 
OSTEYM53 Steyrermuehl 0 0        53.0000 .000000 0.00000 0.00000 57.0000 0.00000 0.00000 0.00000 
OSTEYN51 SteyrNord    0 0        68.3547 .000000 0.00000 0.00000 0.00000 0.00000 0.00000 0.00000 
OSTLEO51 StLeonhard   0 0        8.79017 .000000 -.81400 0.00000 0.00000 -9.4148 0.00000 0.00000 
OSTMAR51 StMartin     0 0        18.2562 .000000 -4.8690 0.00000 0.00000 -53.248 0.00000 0.00000 
OSTOCK51 Stockerau    0 0        18.2283 .000000 -2.6937 0.00000 0.00000 -14.632 0.00000 0.00000 
OSTOCK52 Stockerau    0 0        .000000 .000000 0.00000 0.00000 0.00000 0.00000 0.00000 0.00000 
OSTPAN51 StPantaleon  0 0        .000000 .000000 -11.308 0.00000 0.00000 -46.613 0.00000 0.00000 
OSTRAT51 Stratzdorf   0 0        65.6745 .000000 -3.2542 0.00000 0.00000 -380.28 0.00000 0.00000 
OSTRAT52 Stratzdorf   0 0        .000000 .000000 0.00000 0.00000 0.00000 0.00000 0.00000 0.00000 
OSTROB51 Strobl       0 0        8.75671 .000000 -2.3296 0.00000 0.00000 -22.119 0.00000 0.00000 
OSTVEI51 StVeit       0 0        63.5881 .000000 -7.9812 0.00000 0.00000 -35.580 0.00000 0.00000 
OSTVEI52 StVeit       0 0        .000000 .000000 0.00000 0.00000 0.00000 0.00000 0.00000 0.00000 
OSUEDB11 Suedburgenla 0 0        .000000 68.8678 0.00000 0.00000 0.00000 0.00000 68.8678 0.00000 
OSUEDB51 Suedburgenla 0 0        46.0470 .000000 -7.0120 0.00000 0.00000 -43.181 0.00000 0.00000 
OSWA  51 Schwabeck    0 0        .000000 .000000 -18.000 0.00000 0.00000 -79.600 0.00000 0.00000 
OSWA  52 Schwabeck    0 0        .000000 .000000 -26.666 0.00000 31.8274 -67.009 0.00000 0.00000 
OTAUER11 Tauern       0 0        .000000 .000000 0.00000 -17.780 0.00000 0.00000 .000000 -17.780 
OTAUER12 Tauern       0 0        .000000 .000000 0.00000 0.00000 0.00000 0.00000 0.00000 0.00000 
OTAUER21 Tauern       0 0        .000000 .000000 0.00000 0.00000 0.00000 0.00000 0.00000 0.00000 
OTAUER22 Tauern       0 0        .000000 218.566 0.00000 0.00000 0.00000 0.00000 218.566 0.00000 
OTERNB51 Ternberg     0 0        .000000 .000000 0.00000 0.00000 0.00000 -40.000 0.00000 0.00000 
OTERNI21 Ternitz      0 0        .000000 .000000 0.00000 -1.4945 0.00000 0.00000 0.00000 -1.4945 
OTERNI22 Ternitz      0 0        .000000 .000000 0.00000 0.00000 0.00000 0.00000 0.00000 0.00000 
OTERNI51 Ternitz      0 0        65.4349 .000000 -4.9269 0.00000 0.00000 -20.220 0.00000 0.00000 
OTERNI52 Ternitz      0 0        41.9415 .000000 -3.6592 0.00000 0.00000 -10.268 0.00000 0.00000 
OTHEIS11 Theiss       0 0        .000000 .000000 0.00000 0.00000 0.00000 0.00000 0.00000 0.00000 
OTHEIS51 Theiss       0 0        .000000 .000000 0.00000 0.00000 0.00000 -140.00 0.00000 0.00000 
OTHEIS52 Theiss       0 0        .000000 .000000 0.00000 0.00000 0.00000 -255.00 0.00000 0.00000 
OTHEIS59 Theiss       0 0        .000000 .000000 0.00000 0.00000 0.00000 0.00000 0.00000 0.00000 
OTILLY51 Tillysburg   0 0        14.3041 .000000 -.54270 0.00000 0.00000 -2.2353 0.00000 0.00000 
OTIMEL51 Timelkam     0 0        33.8533 .000000 -398.21 0.00000 0.00000 -436.03 0.00000 0.00000 
OTIMEL52 Timelkam     0 0        60.0000 .000000 0.00000 0.00000 0.00000 0.00000 0.00000 0.00000 
OTRAIS51 Traisen      0 0        .000000 .000000 0.00000 0.00000 0.00000 0.00000 0.00000 0.00000 
OTRAIS52 Traisen      0 0        39.9772 .000000 -4.5283 0.00000 0.00000 -17.639 0.00000 0.00000 
OTRAUN51 Traunfall    0 0        18.7531 .000000 -3.4583 0.00000 0.00000 -27.513 0.00000 0.00000 
OTRAUN52 Traunfall    0 0        .000000 .000000 0.00000 0.00000 0.00000 0.00000 0.00000 0.00000 
OTRAUP51 TraunPucking 0 0        42.2341 .000000 -13.380 0.00000 0.00000 -51.881 0.00000 0.00000 
OTRKI 51 Traiskirchen 0 0        .000000 .000000 0.00000 0.00000 0.00000 0.00000 0.00000 0.00000 
OTULLN51 TullnWest    0 0        50.7481 .000000 -2.8914 0.00000 0.00000 -8.7631 0.00000 0.00000 
OUNTER51 Unterach     0 0        13.9491 .000000 -.83585 0.00000 0.00000 -4.1211 0.00000 0.00000 
OUNTER52 Unterach     0 0        .000000 .000000 0.00000 0.00000 0.00000 0.00000 0.00000 0.00000 
OUSIEB51 Untersiebenb 0 0        .000000 .000000 0.00000 0.00000 0.00000 0.00000 0.00000 0.00000 
OUSIEB52 Untersiebenb 0 0        .000000 .000000 -12.914 0.00000 0.00000 -157.12 0.00000 0.00000 
OVILLA21 Villach      0 0        .000000 34.0190 0.00000 -.00205 0.00000 0.00000 34.0190 -.00205 
OVILLA22 Villach      0 0        .000000 .000000 0.00000 -.00027 0.00000 0.00000 .000000 -.00027 
OVILLA51 Villach      0 0        .000000 .000000 0.00000 -.00007 0.00000 0.00000 .000000 -.00007 
OVILLA52 Villach      0 0        .000000 .000053 0.00000 0.00000 0.00000 0.00000 .000053 0.00000 
OVOEKL51 Voecklabruck 0 0        19.4476 .000000 -1.8453 0.00000 0.00000 -8.9305 0.00000 0.00000 
OVORCH51 Vorchdorf    0 0        31.6453 .000000 -8.7572 0.00000 0.00000 -42.698 0.00000 0.00000 
OWAGEN51 Wagenham     0 0        8.36872 .000000 -1.5304 0.00000 0.00000 -7.4632 0.00000 0.00000 
OWAIDH51 WaidhofenTha 0 0        47.3905 .000000 -9.2425 0.00000 0.00000 -41.923 0.00000 0.00000 
OWALLS21 Wallsee      0 0        .000000 .812260 -100.00 0.00000 0.00000 -213.00 .812260 0.00000 
OWASEB51 Wasenbruck   0 0        48.7915 .000000 -9.4087 0.00000 0.00000 -32.350 0.00000 0.00000 
OWASEB52 Wasenbruck   0 0        .000000 .000000 0.00000 0.00000 0.00000 0.00000 0.00000 0.00000 
OWATTS51 Wattstrasse  0 0        26.3695 .000000 -.18303 0.00000 0.00000 -.90697 0.00000 0.00000 
OWEGSC51 Wegscheid    0 0        16.8498 .000000 -.03750 0.00000 0.00000 -.15050 0.00000 0.00000 
OWEGSC52 Wegscheid    0 0        .000000 .000000 0.00000 0.00000 0.00000 0.00000 0.00000 0.00000 
OWEISS21 Weissenbach  0 0        .000000 .000000 0.00000 0.00000 0.00000 0.00000 0.00000 0.00000 
OWEISS22 Weissenbach  0 0        94.8709 .000000 -44.264 -55.033 .867904 -243.53 0.00000 -55.033 
OWELS 51 Wels         0 0        41.9830 .000000 -1.8002 0.00000 0.00000 -57.640 0.00000 0.00000 
OWESS 51 WienEssling  0 0        .000000 .000000 -6.8800 0.00000 0.00000 -49.750 0.00000 0.00000 
OWESTT11 Westtirol    0 2 415.93 .000000 .000000 0.00000 -35.302 0.00000 0.00000 300.000 -300.00 
OWESTT12 Westtirol    0 0        .000000 .000000 0.00000 0.00000 0.00000 0.00000 0.00000 0.00000 
OWESTT21 Westtirol    0 0        67.0335 83.4706 -16.160 0.00000 0.00000 -73.340 83.4706 0.00000 
OWESTT22 Westtirol    0 0        67.0335 83.4706 -16.160 0.00000 0.00000 -73.340 83.4706 0.00000 
OWIEN 11 WienSuedOst  0 2 413.88 .000000 .000000 0.00000 -8.2595 0.00000 0.00000 200.000 -200.00 
OWIEN 12 WienSuedOst  0 0        .000000 .000000 0.00000 -8.2596 0.00000 0.00000 .000000 -8.2596 
OWIEN 21 WienSuedOst  0 0        .000000 235.965 0.00000 0.00000 0.00000 0.00000 235.965 0.00000 
OWIEN 22 WienSuedOst  0 0        .000000 .000000 0.00000 0.00000 0.00000 0.00000 0.00000 0.00000 
OWIEN 51 WienSuedOst  0 0        43.5044 .000000 0.00000 0.00000 0.00000 0.00000 0.00000 0.00000 
OWIEN 52 WienSuedOst  0 0        .000000 .000000 0.00000 0.00000 0.00000 0.00000 0.00000 0.00000 
OWIEN 53 WienSuedOst  0 0        .000000 .000000 0.00000 0.00000 0.00000 0.00000 0.00000 0.00000 
OWIENA51 WienA        0 0        200.127 .000000 0.00000 0.00000 0.00000 0.00000 0.00000 0.00000 
OWIENB51 WienB        0 0        158.938 .000000 -.60000 0.00000 0.00000 -3.0000 0.00000 0.00000 
OWIENO51 WienO        0 0        229.411 .000000 0.00000 0.00000 0.00000 0.00000 0.00000 0.00000 
OWINO 11 WienNord     0 0        .000000 121.161 0.00000 0.00000 0.00000 0.00000 121.161 0.00000 
OWINO 12 WienNord     0 0        .000000 .000000 0.00000 0.00000 0.00000 0.00000 0.00000 0.00000 
OWINO 51 WienNord     0 0        .000000 .000000 -6.7000 0.00000 0.00000 -21.800 0.00000 0.00000 
OWINO 52 WienNord     0 0        .000000 .000000 0.00000 0.00000 0.00000 0.00000 0.00000 0.00000 
OWINO 53 WienNord     0 0        .000000 .000000 0.00000 0.00000 0.00000 0.00000 0.00000 0.00000 
OWISU 11 WienSued     0 0        .000000 269.310 0.00000 -75.057 0.00000 0.00000 269.310 -75.057 
OWISU 12 WienSued     0 0        .000000 .000000 0.00000 -75.057 0.00000 0.00000 0.00000 -75.057 
OWISU 51 WienSued     0 0        .000000 .000000 0.00000 0.00000 0.00000 0.00000 0.00000 0.00000 
OWISU 52 WienSued     0 0        .000000 .000000 0.00000 0.00000 0.00000 0.00000 0.00000 0.00000 
OWISU 53 WienSued     0 0        .000000 .000000 0.00000 0.00000 0.00000 0.00000 0.00000 0.00000 
OWIWE 51 WienWest     0 0        108.772 .000000 0.00000 0.00000 0.00000 0.00000 0.00000 0.00000 
OWIWE 52 WienWest     0 0        11.0000 .000000 0.00000 0.00000 0.00000 0.00000 0.00000 0.00000 
OWNDF 51 Wiener_Neudo 0 0        155.655 .000000 -10.200 0.00000 0.00000 -31.700 0.00000 0.00000 
OWNST 51 Wiener_Neust 0 0        31.3589 .000000 -14.416 0.00000 0.00000 -138.43 0.00000 0.00000 
OWNST 52 Wiener_Neust 0 0        .000000 .000000 0.00000 0.00000 0.00000 0.00000 0.00000 0.00000 
OWNSTF51 Wiener_Neust 0 0        .000000 .000000 0.00000 0.00000 0.00000 0.00000 0.00000 0.00000 
OWOELL51 Woellersdorf 0 0        .000000 .000000 0.00000 0.00000 0.00000 0.00000 0.00000 0.00000 
OWOLFS51 Wolfsberg    0 0        12.3084 .000000 -2.6231 0.00000 0.00000 -14.272 0.00000 0.00000 
OWOLFS52 Wolfsberg    0 0        .000000 .000000 0.00000 0.00000 0.00000 0.00000 0.00000 0.00000 
OYAMST51 Y_Ybbsfeld_A 0 0        .000000 .000000 0.00000 0.00000 0.00000 0.00000 0.00000 0.00000 
OYAMST52 Y_Ybbsfeld_A 0 0        .000000 .000000 0.00000 0.00000 0.00000 0.00000 0.00000 0.00000 
OYBBSF21 Ybbsfeld     0 0        .000000 .000000 0.00000 -16.485 0.00000 0.00000 .000000 -16.485 
OYBBSF51 Ybbsfeld     0 0        .000000 .000000 0.00000 0.00000 0.00000 0.00000 0.00000 0.00000 
OYBBSF52 Ybbsfeld     0 0        .000000 .000000 0.00000 0.00000 0.00000 0.00000 0.00000 0.00000 
OYLASS51 Y_Lassee     0 0        .000000 .000000 0.00000 0.00000 0.00000 0.00000 0.00000 0.00000 
OYLASS52 Y_Lassee     0 0        .000000 .000000 0.00000 0.00000 0.00000 0.00000 0.00000 0.00000 
OYLOOS51 Y_Loosdorf   0 0        .000000 .000000 0.00000 0.00000 0.00000 0.00000 0.00000 0.00000 
OYLOOS52 Y_Loosdorf   0 0        .000000 .000000 0.00000 0.00000 0.00000 0.00000 0.00000 0.00000 
OYMAUT51 Y_Mauth      0 0        .000000 .000000 0.00000 0.00000 0.00000 0.00000 0.00000 0.00000 
OYMELL11 Y_Mellach    0 0        .000000 .000000 0.00000 0.00000 0.00000 0.00000 0.00000 0.00000 
OYMELL12 Y_Mellach    0 0        .000000 .000000 0.00000 0.00000 0.00000 0.00000 0.00000 0.00000 
OYOBER51 Y_Oberdraubu 0 0        .000000 .000000 0.00000 0.00000 0.00000 0.00000 0.00000 0.00000 
OYPBEU21 YbbsPersenbe 0 0        .000000 3.59195 -34.000 0.00000 0.00000 -238.80 3.59195 0.00000 
OYPBEU22 YbbsPersenbe 0 0        .000000 .660369 -34.000 0.00000 0.00000 -238.80 .660369 0.00000 
OYPBEU23 YbbsPersenbe 0 0        .000000 .317931 -34.000 0.00000 0.00000 -238.80 .317931 0.00000 
OYREIS51 Y_ReisseckKr 0 0        .000000 .000000 0.00000 0.00000 0.00000 0.00000 0.00000 0.00000 
OYSALZ21 Y_Salzach    0 0        .000000 .000000 0.00000 0.00000 0.00000 0.00000 0.00000 0.00000 
OYSALZ22 Y_Salzach    0 0        .000000 .000000 0.00000 0.00000 0.00000 0.00000 0.00000 0.00000 
OYSCHA51 Y_Scharndorf 0 0        .000000 .000000 0.00000 0.00000 0.00000 0.00000 0.00000 0.00000 
OYSCHA52 Y_Scharndorf 0 0        .000000 .000000 0.00000 0.00000 0.00000 0.00000 0.00000 0.00000 
OYSTRO51 Y_Strobl     0 0        .000000 .000000 0.00000 0.00000 0.00000 0.00000 0.00000 0.00000 
OZAYA 11 Zaya         0 0        41.2726 62.4756 0.00000 0.00000 0.00000 0.00000 62.4756 0.00000 
OZAYA 12 Zaya         0 0        .000000 .000000 0.00000 0.00000 0.00000 0.00000 0.00000 0.00000 
OZAYA 21 Zaya         0 0        .280143 95.0592 0.00000 0.00000 0.00000 0.00000 95.0592 0.00000 
OZAYA 22 Zaya         0 0        .000000 .000000 0.00000 0.00000 0.00000 0.00000 0.00000 0.00000 
OZAYA 51 Zaya         0 0        22.2650 .000000 -.01560 0.00000 0.00000 -.49400 0.00000 0.00000 
OZAYA 52 Zaya         0 0        .000000 .000000 0.00000 0.00000 0.00000 0.00000 0.00000 0.00000 
OZAYA 58 Zaya         0 0        .000000 .000000 0.00000 0.00000 0.00000 0.00000 0.00000 0.00000 
OZAYA 59 Zaya         0 0        .000000 .000000 0.00000 0.00000 0.00000 0.00000 0.00000 0.00000 
OZELL 11 ZellZiller   0 0        .000000 .000000 0.00000 -35.383 0.00000 0.00000 .000000 -35.383 
OZELL 21 ZellZiller   0 0        22.7896 107.775 -12.120 0.00000 0.00000 -159.62 107.775 0.00000 
OZELL 22 ZellZiller   0 0        .000000 .000000 0.00000 0.00000 0.00000 0.00000 0.00000 0.00000 
OZELL 23 ZellZiller   0 0        .000000 .000000 0.00000 0.00000 0.00000 0.00000 0.00000 0.00000 
OZELTW21 Zeltweg      0 0        .000000 .000000 0.00000 -21.249 0.00000 0.00000 .000000 -21.249 
OZELTW51 Zeltweg      0 0        .000000 .000000 0.00000 0.00000 0.00000 0.00000 0.00000 0.00000 
OZELTW52 Zeltweg      0 0        .000000 .000000 0.00000 0.00000 0.00000 0.00000 0.00000 0.00000 
OZURND11 Zurndorf     0 2 415.10 .000000 45.8730 0.00000 0.00000 0.00000 0.00000 100.000 -100.00 
OZURND51 Zurndorf     0 0        .000000 .000000 -11.966 0.00000 0.00000 -178.78 0.00000 0.00000 
OZURND52 Zurndorf     0 0        .000000 .000000 -24.245 0.00000 0.00000 -361.73 0.00000 0.00000 
OZWETT51 Zwettl       0 0        34.7355 .000000 -15.818 0.00000 0.00000 -48.351 0.00000 0.00000 
OZWETT52 Zwettl       0 0        .000000 .000000 0.00000 0.00000 0.00000 0.00000 0.00000 0.00000 
##ZXX
XDU_SL11              0 0        .000000 72.5000 -527.94 0.00000 -527.94 -527.94 72.5000 0.00000 
XDU_SL12              0 0        .000000 72.5000 -527.94 0.00000 -527.94 -527.94 72.5000 0.00000 
XGR_TA41              0 0        60.2848 .000000 0.00000 0.00000 0.00000 0.00000 0.00000 0.00000 
XKA_MA11              0 0        185.171 7.92273 0.00000 0.00000 0.00000 0.00000 7.92273 0.00000 
XKA_MA12              0 0        185.171 7.92273 0.00000 0.00000 0.00000 0.00000 7.92273 0.00000 
XLI_SO21              0 0        .000000 .000000 0.00000 0.00000 0.00000 0.00000 0.00000 0.00000 
XMN_BR21              0 0        .000000 45.4221 -355.28 0.00000 -355.28 -355.28 45.4221 0.00000 
XMN_RU21              0 0        102.837 .000000 0.00000 -12.148 0.00000 0.00000 .000000 -12.148 
XMN_RU22              0 0        107.710 .000000 0.00000 -11.305 0.00000 0.00000 .000000 -11.305 
XNE_GY21              0 0        .000000 .000000 0.00000 0.00000 0.00000 0.00000 0.00000 0.00000 
XOB_PO21              0 0        109.353 .000000 0.00000 -54.182 0.00000 0.00000 .000000 -54.182 
XPE_AH21              0 0        .000000 34.2374 -240.96 0.00000 -240.96 -240.96 34.2374 0.00000 
XPE_PI21              0 0        .000000 69.4925 -262.39 0.00000 -262.39 -262.39 69.4925 0.00000 
XPE_PT21              0 0        .000000 33.4596 -368.07 0.00000 -368.07 -368.07 33.4596 0.00000 
XPE_SI21              0 0        .000000 33.7828 -240.06 0.00000 -240.06 -240.06 33.7828 0.00000 
XWA_BR21              0 0        .000000 37.1086 -135.45 0.00000 -135.45 -135.45 37.1086 0.00000 
XWE_BR12              0 0        70.4692 38.9781 0.00000 0.00000 0.00000 0.00000 38.9781 0.00000 
XWE_BR21              0 0        109.103 .000000 0.00000 -2.6728 0.00000 0.00000 .000000 -2.6728 
XWE_LE11              0 0        12.2269 20.5597 0.00000 0.00000 0.00000 0.00000 20.5597 0.00000 
XWE_PR11              0 0        .000000 79.4032 -83.646 -50.195 -83.646 -83.646 79.4032 -50.195 
XWE_PR12              0 0        .000000 .000000 0.00000 0.00000 0.00000 0.00000 0.00000 0.00000 
XWE_SI2A              0 0        .000000 .000000 -52.673 -18.212 -52.673 -52.673 .000000 -18.212 
XWE_SI2B              0 0        .000000 .000000 -52.673 -18.212 -52.673 -52.673 .000000 -18.212 
XWE_SI2C              0 0        .000000 .000000 -48.560 -16.507 -48.560 -48.560 .000000 -16.507 
XWE_VO21              0 0        56.1067 .000000 0.00000 -12.419 0.00000 0.00000 .000000 -12.419 
XWE_WB21              0 0        .000000 .000000 0.00000 0.00000 0.00000 0.00000 0.00000 0.00000 
XWE_WB22              0 0        .000000 .000000 0.00000 0.00000 0.00000 0.00000 0.00000 0.00000 
XWI_GY21              0 0        .000000 .000000 0.00000 0.00000 0.00000 0.00000 0.00000 0.00000 
XYV_SI21              0 0        .000000 14.0853 -61.304 -10.893 -61.304 -61.304 14.0853 -10.893 
XYV_SI22              0 0        .000000 14.0853 -61.304 -10.893 -61.304 -61.304 14.0853 -10.893 
XZA_SO21              0 0        .000000 .000000 0.00000 0.00000 0.00000 0.00000 0.00000 0.00000 
XZA_SO22              0 0        .000000 .000000 0.00000 0.00000 0.00000 0.00000 0.00000 0.00000 
XZU_GY11              0 0        34.1376 27.1910 0.00000 0.00000 0.00000 0.00000 27.1910 0.00000 
XZU_SZ11              0 0        94.5260 .000000 0.00000 -19.982 0.00000 0.00000 .000000 -19.982 
##C-----Leitungen-------------------------------------------
         1         2         3         4         5         6
123456789012345678901234567890123456789012345678901234567890
<  Kn1 > <  Kn2 > O E R(Ohm) X(Ohm) B (miuS) Itherm  
##L 
O6MNGN21 O6MNGN22 1 2 .00000 .00000 0.000000   2400 MNCPL1      
O6MNGN21 O6WERB22 1 0 .37000 5.6400 64.90530   2400 406C        
O6WALG21 O6WERB21 1 0 .88000 10.910 125.3495   2040 405B        
O6WERB21 O6WERB22 1 2 .00000 .00000 0.000000   2500 WERBCPL1    
O9KIRB21 O9STRA21 1 0 .67000 7.5000 98.64600   1200 279         
O9KIRB21 O9STRA21 2 0 .67000 7.5000 98.64600   1200 280         
O9PRUT21 OWESTT21 1 0 1.5500 8.4000 103.0442   1200 277         
O9PRUT21 OWESTT22 2 0 1.5500 8.4000 103.1070   1200 278         
O9STRA21 O9THAU21 1 0 2.8500 13.700 90.16370   1094 273B        
O9STRA21 O9THAU21 2 0 2.8500 13.700 90.16370   1094 274B        
O9STRA21 OZELL 21 1 0 1.5100 7.5400 62.46000   1674 273A        
O9STRA21 OZELL 22 2 0 1.5100 7.5400 67.17000   1674 274A        
O9THAU21 O9YVIL21 1 0 .70000 3.4700 24.14000   1572 273C-THA    
O9THAU21 O9YVIL22 2 0 .70000 3.4700 24.14000   1572 274C-THA    
O9VILL21 O9YVIL21 1 0 .50000 5.0000 0.000000   1572 273C-VIL    
O9VILL21 O9YVIL22 2 0 .50000 5.0000 0.000000   1572 274C-VIL    
OABW  51 OABW  52 1 2 .00000 .00000 0.000000   2400 ABW 5CPL1   
OABW  51 OENNSI51 1 0 .64000 2.6000 166.3159    600 154-7       
OABW  51 OERNST51 1 0 .42300 4.9640 71.78000   2176 152-0       
OABW  51 OPICHL51 1 0 .16500 1.7920 27.88000   2080 152-11      
OABW  51 OPICHL51 2 0 .16500 1.7920 27.88000   2080 152-12      
OABW  51 OWEGSC51 1 0 .32500 4.0070 53.68400   2176 152-9       
OABW  52 OMAUTH51 1 0 1.0400 3.8600 27.49521    600 154-8       
OAIGER51 OANTHI51 1 0 2.1780 5.2800 37.73000    515 188-3A      
OAIGER51 OPASSA51 1 0 3.6500 12.600 83.59700    480 188-1       
OALTEN21 ODUERN21 1 0 .44000 2.3000 16.33628    354 215A        
OALTEN22 ODUERN21 2 0 .44000 2.3000 16.33628    354 215B        
OALTEN23 ODUERN21 3 0 .44000 2.3000 16.33628    354 215C        
OAMSCH51 OBERGE51 1 0 1.2900 3.7200 22.68200    500 168-7       
OAMSCH51 OZWETT51 1 0 2.1700 14.550 116.5530    500 166-0-9     
OAMSTE51 OAMSTE52 1 2 .00000 .00000 0.000000   2400 AMCPL1      
OAMSTE51 OERNST53 1 0 2.8460 8.9300 144.4000    600 154-0       
OAMSTE51 OGERST51 1 0 2.1790 8.7210 86.90000    535 164-4-7     
OAMSTE51 OGREST51 1 0 2.1680 10.900 87.59000    574 164-3       
OAMSTE52 OYAMST51 1 0 1.9380 6.0800 37.32000    605 168-4-AMST  
OAMSTE52 OYAMST52 2 0 1.9400 6.1000 37.47000    605 168-5-AMST  
OANDAU51 OZURND51 1 0 .48700 2.0060 1291.980    960 140-3       
OANDAU51 OZURND51 2 0 .48700 2.0060 1291.980    960 140-4       
OANNAB51 OARTHU51 1 0 4.5440 12.190 122.4278    600 162-5C      
OANNAB51 OUNTER51 1 0 5.2467 14.105 128.8995    560 162-5D      
OANTHI51 OEGGLF51 1 0 .83000 3.7000 23.97000    535 188-3B      
OARTHU51 OSCHWZ51 1 0 1.5940 4.4700 18.91238    575 162-4       
OARTHU51 OSTROB51 1 0 8.7140 21.470 15.40951    550 162-6C      
OASCHA21 OHAUSR21 1 8 3.4780 19.630 169.8973   1002 203B        
OASCHA21 OPETER21 1 0 4.2700 28.500 296.2836   1002 203A        
OASPER51 OSTADL51 1 0 .13400 .36700 409.0000    455 143-1       
OASPER51 OSTADL51 2 0 .13400 .36700 409.0000    455 143-2       
OASPER51 OWESS 51 1 0 .12900 .29600 174.0000    455 143-3       
OASPER51 OWESS 51 2 0 .12900 .29600 174.0000    455 143-4       
OAUEN 51 OAUEN 52 1 2 .00000 .00000 0.000000   2400 AUEN5CPL1   
OAUEN 51 OLANDS51 2 0 1.3400 2.4800 26.08580    385 113-2-4A    
OAUEN 51 OVILLA51 2 0 .82000 3.1600 31.22000    640 113-1B-3A   
OAUEN 52 OLANDS51 1 0 1.1600 2.1800 30.41060    385 113-1A      
OAUEN 52 OVILLA51 1 0 .47000 1.9500 16.94950    640 113-4B      
OAUSSE51 OAUSSE52 1 2 .00000 .00000 0.000000   2400 AUS5CPL1    
OAUSSE51 OOBERD51 1 0 3.4780 12.120 82.88100    652 113-9       
OAUSSE51 OOBERD51 2 0 3.4800 12.087 83.12300    685 113-0B      
OAUSSE52 OMALTA51 1 0 1.1440 5.6690 74.29200   1280 115-3B      
OAUSSE52 OMALTA51 2 0 1.1440 5.6690 74.19200   1280 115-4C      
OBADEN51 OENZF 51 1 0 1.7050 4.8620 170.0000    455 108-3       
OBADEN51 OTRKI 51 1 0 .15740 .39350 210.0000    520 108-0       
OBADEN51 OTRKI 51 2 0 .35780 .94300 130.0000    455 108-9       
OBAUMK51 OBAUMK52 1 2 .00000 .00000 0.000000   2400 BAUMK5CPL1  
OBAUMK51 OZELTW51 1 0 .20300 1.4830 .0130000   1060 121-0       
OBAUMK51 OZELTW51 2 0 .20300 1.4830 .0130000   1060 121-9       
OBAUMK52 OSTLEO51 1 0 2.7870 9.5530 74.11000    665 120-0F      
OBAUMK52 OSWA  52 1 0 7.0960 24.340 188.5270    665 120-5       
OBAUSS51 OSTEEG51 1 0 1.2602 5.9472 40.02389    600 163-6       
OBAUSS51 OSTEEG51 2 0 1.2602 5.9472 40.02389    600 163-7       
OBERGE51 OBERGE52 1 7 .00000 .00000 0.000000   2400 BERGE5CPL1  
OBERGE51 OPOTTE52 1 0 5.4080 14.610 138.4000    440 168-0-1-3   
OBERGE51 OYLOOS52 1 0 1.8286 4.5674 26.24800    500 168-3-BE    
OBERGE52 OERLAU51 1 0 2.0459 5.6199 33.63070    500 168-6       
OBERGE52 OERLAU51 2 0 1.5185 3.8498 22.23620    500 168-8       
OBERGE52 OERLAU51 3 0 1.5185 3.8498 22.23620    500 168-9       
OBERGE52 OPOTTE51 2 0 5.5200 17.200 108.0708    650 168-2       
OBERGE52 OYLOOS51 1 0 1.8286 4.5674 26.24800    440 168-2-BE    
OBISAM11 OBISAM12 1 2 .00000 .00000 0.000000   2400 BI1CPL1     
OBISAM11 ODUERN11 1 0 1.1100 15.520 193.1137   2300 436A        
OBISAM11 ODUERN11 3 0 1.1070 15.520 193.1140   2301 443A        
OBISAM11 OSARA 11 3 0 1.0850 15.190 189.7522   2300 444C        
OBISAM11 OWIEN 11 1 0 1.6490 23.250 288.9640   2300 436B        
OBISAM11 OWINO 11 2 0 .99000 3.2300 -10.9072   1070 511         
OBISAM12 ODUERN11 2 0 1.1090 15.520 193.1137   2300 444A        
OBISAM12 OWINO 11 1 0 .99000 3.2300 -10.9072   1070 510         
OBISAM12 OZAYA 11 1 0 .90400 16.340 230.0000   2300 443B        
OBISAM21 OBISAM22 1 2 .00000 .00000 0.000000   2400 BI2CPL1     
OBISAM21 ODUERN21 1 0 1.1000 12.700 167.1327   2080 297         
OBISAM21 ODUERN21 2 0 1.1000 12.700 167.1327   2080 298         
OBISAM21 OGRFST21 1 0 1.3000 7.1000 47.53229    840 239         
OBISAM21 OGRFST21 2 0 1.3000 7.1000 47.53229    840 240         
OBISAM21 OKLEDE21 1 0 2.1650 11.710 137.9473   1200 228B        
OBISAM21 OWIEN 21 1 0 2.2480 12.140 143.0052   1200 227         
OBISAM21 OYBBSF21 1 0 8.8760 47.310 321.6990   1016 207         
OBISAM21 OYBBSF21 2 0 8.8760 47.310 321.6990   1016 208         
OBISAM51 OBISAM52 1 7 .00000 .00000 0.000000   2400 BISAM5CPL1  
OBISAM51 OBOCKF51 1 0 .90000 5.0600 40.90000   1170 129-13      
OBISAM52 OEIBES51 1 0 2.0700 6.4500 40.52655    650 129-2       
OBISAM52 OEIBES51 2 0 2.0700 6.4500 0.000000    650 129-12      
OBISAM52 OKORNE51 2 0 .20000 .84000 9.361946   1200 109-1       
OBISAM52 OSCHOE51 1 0 1.7400 8.0000 88.50000   1210 129-5       
OBISAM52 OSTOCK51 1 0 .70000 2.2000 56.54867    650 129-0-6-7   
OBISAM54 OGERAS51 1 0 .35900 1.6260 29.84510   1000 100-51      
OBISAM55 OGERAS51 2 8 .35900 1.6260 29.84510   1000 100-61      
OBISAM55 OWINO 51 1 0 .32830 3.7880 49.04030   2100 100-1       
OBISAM55 OWINO 51 2 0 .32830 3.7880 49.04030   2100 100-2       
OBISAM56 OWIWE 52 1 0 4.4353 11.484 74.55310    455 106-71-72   
OBISAM56 OWIWE 52 2 0 4.4353 11.484 74.55310    455 106-81-82   
OBOCKF51 OGAENS52 1 0 .35000 2.4600 20.80000   1250 129-14      
OBRAUN51 OBRAUN52 1 7 .00000 .00000 0.000000   2500 BRAUN5CPL1  
OBRAUN51 OPETER51 1 0 1.0700 2.4300 16.43400    470 184-1       
OBRAUN51 OPETER51 2 0 1.0700 2.4300 16.43400    470 184-2       
OBRUCK51 OPETRO51 1 0 1.9320 6.0200 37.82478    650 128-17      
OBRUCK51 OSARA 51 1 0 .28603 2.0925 16.07550   1060 128-14      
OBRUCK51 OSARA 51 2 0 .28603 2.0925 16.07550   1060 128-15      
OBRUCK51 OYSCHA52 1 0 .11000 .77000 6.500000   1060 128-16-B    
OBRUEC51 OBRUEC52 1 2 .00000 .00000 0.000000   2400 BRKL5CPL1   
OBRUEC51 OLASDO51 1 0 1.3970 5.1880 35.34900    625 112-5B      
OBRUEC52 OOBERS51 1 0 1.5757 6.1400 41.31200    600 112-7       
OBRUEC52 OSTVEI52 1 0 10.394 16.481 99.87100    640 114-1-3-5   
ODEUTS51 ODEUTS52 1 7 .00000 .00000 0.000000   2400 DEUTS5CPL1  
ODEUTS51 OYLASS51 1 0 2.2600 7.0800 43.40000    605 129-1-D     
ODEUTS51 OYLASS52 2 0 2.2600 7.0800 43.40000    605 129-3-D     
ODEUTS52 OPETRO51 1 0 .01505 .07360 .6220354   1092 128-9       
ODEUTS52 OYSCHA52 1 0 .40000 2.8100 23.10000   1060 128-16-D    
ODONST51 OSIMME52 1 0 1.1780 3.7780 45.86730    910 106-3       
ODONST51 OSIMME52 2 0 1.1320 3.6900 45.86730   1000 106-4       
ODONST51 OSTADL51 1 0 .22600 .69100 7.068580   1000 106-1       
ODONST51 OSTADL51 2 0 .22600 .69100 7.068580    910 106-2       
ODONST51 OWESS 51 1 0 .28000 .81000 393.0000    570 143-7       
ODUERN11 ODUERN12 1 2 .00000 .00000 0.000000   2400 DUCPL1      
ODUERN11 ODUERN13 2 2 .00000 .00000 0.000000   2400 DUCPL2      
ODUERN11 OETZER11 1 0 .30000 4.4000 51.05088   2300 434B        
ODUERN11 OKRONS11 1 0 2.5600 37.200 434.7964   2300 433         
ODUERN11 OKWDUR11 1 0 .07000 1.0000 11.52964    684 442         
ODUERN11 OWIEN 11 1 0 2.7500 38.620 480.3495   2300 435A        
ODUERN21 ODUERN22 1 2 .00000 .00000 0.000000   2400 DU2CPL1     
ODUERN51 ODUERN52 1 2 .00000 .00000 0.000000   2400 DU5CPL1     
ODUERN51 OEGGEN51 1 0 2.1300 16.170 142.1000   1060 165-6       
ODUERN51 OEGGEN51 2 0 2.1300 16.170 142.1000   1060 165-7       
ODUERN51 OSTRAT51 1 0 1.3800 6.1900 69.24100   1210 147-4       
ODUERN51 OSTRAT51 2 0 1.3800 6.1900 69.24100   1210 147-3       
ODUERN51 OTULLN51 1 0 1.8400 5.7600 35.34000    605 147-2       
ODUERN51 OTULLN51 2 0 1.7200 5.4000 33.14000    605 147-1       
OEBENF51 OEBENF52 1 2 .00000 .00000 0.000000   2500 EB5CPL1     
OEBENF51 OEBREI51 1 0 1.4970 5.1496 35.68850    640 124-2A      
OEBENF51 OENZF 51 1 0 3.0970 9.0390 67.50000    455 108-2       
OEBENF51 OPODO 51 1 0 1.0450 3.1430 24.19000    455 108-11      
OEBENF51 OTERNI51 1 0 4.8970 8.8000 92.61420    535 122-8       
OEBENF51 OWIEN 52 1 0 4.2780 13.330 83.75490    640 124-1       
OEBENF52 OWNST 52 1 0 1.6690 4.3660 32.95500    535 122-9       
OEBREI51 OWIEN 53 1 0 3.1740 9.8900 62.14070    640 124-2B      
OEDLIN21 OOBERS21 1 0 .43000 2.1000 14.16858    800 281         
OEFERD51 OOTH  51 1 0 .58640 4.4547 36.53672    600 156-0       
OEFERD51 OOTH  51 2 0 .58640 4.4547 36.53672    600 156-9       
OEGGEN51 OHORN 51 1 0 2.0400 6.4100 39.36000    605 167-4       
OEGGEN51 OHORN 51 2 0 2.0400 6.4100 39.36000    605 167-14      
OEGGEN51 OPEIGA51 1 0 2.4200 7.5900 46.56000    605 167-5       
OEGGEN51 OPEIGA51 2 0 2.4200 7.5900 46.56000    605 167-15      
OEGGEN51 OWAIDH51 1 0 2.5300 18.660 167.9000   1500 165-8       
OEGGLF51 OERING51 1 0 1.0400 4.6260 39.27000    820 123         
OEGGLF51 OPETER51 1 0 1.7500 8.4100 60.28700    689 188-5       
OEGGLF51 OPOCKI51 1 0 2.2800 5.5350 39.89000    535 196-6       
OEGGLF51 OPOCKI51 2 0 2.2800 5.5350 39.89000    535 196-7       
OEIBES51 OEIBES52 1 7 .00000 .00000 0.000000   2400 EIBES5CPL1  
OEIBES51 OGAENS51 1 0 1.6560 5.1600 32.42124    650 129-4       
OEIBES51 OGAWEI51 1 0 .75000 5.1200 45.01900   1092 129-8       
OEIBES51 OGAWEI51 2 0 .75000 5.1200 45.01900   1092 129-27      
OEISEN51 OMATTE51 1 0 2.2490 8.5650 52.21000    696 126-1       
OEISEN51 OMATTE51 2 0 2.2490 8.5650 52.21000    696 126-2       
OEISEN51 ONEUSI51 1 0 3.0010 11.430 69.68000    696 126-8       
OEISEN51 ONEUSI51 2 0 3.0010 11.430 69.68000    696 126-9       
OENNSI51 OYMAUT51 1 0 .33600 1.2900 8.689645    670 154-7A-Enns 
OENZF 51 OPODO 51 1 0 1.9600 5.9200 45.60000    585 108-12      
OENZF 51 OTRKI 51 1 0 1.8310 5.2880 144.0000    250 108-4       
OERING51 OPETER51 1 0 1.0500 5.2000 84.82300    701 182-5       
OERING51 OPETER52 2 0 1.0400 5.0900 84.82300    701 182-6       
OERLAU51 OYAMST51 1 0 .89300 6.5340 50.18000    605 168-4-ERLF  
OERLAU51 OYAMST52 2 0 .89000 6.5150 50.03000    605 168-5-ERLF  
OERNST11 OKRONS11 1 0 .02100 .30100 3.830000   2300 491         
OERNST11 OKRONS11 2 0 .02100 .30100 3.830000   2300 492         
OERNST21 OERNST22 1 7 .00000 .00000 0.000000   2400 EHCPL2      
OERNST21 OHAUSR21 1 0 1.1640 13.150 185.8570   1077 203C        
OERNST21 OSATTL21 1 0 .86900 9.8230 138.6380   1077 204C        
OERNST21 OWALLS21 1 0 1.7900 9.2700 62.73760    958 205A        
OERNST21 OYBBSF21 1 0 3.4400 18.240 123.6216    958 206         
OERNST22 OKLAUS21 1 0 3.4700 18.000 128.3500    925 201B        
OERNST22 OWEISS22 1 0 6.6700 34.490 240.0800    925 202         
OERNST51 OERNST52 3 2 .00000 .00000 0.000000   2400 EHCPL3      
OERNST51 OERNST53 4 7 .00000 .00000 0.000000   2400 EHCPL4      
OERNST51 OHULI 51 1 0 1.2210 16.472 183.9090    800 154-5       
OERNST51 OHULI 51 2 0 1.2210 16.472 183.9090    800 154-6       
OERNST51 OKROW 51 1 0 .09000 .76000 5.969000    470 158-1       
OERNST51 OMUEHL51 1 0 .22000 1.5000 9.330530    942 158-6       
OERNST51 OSTANI51 1 0 .22758 1.5022 9.330530    942 158-5       
OERNST51 OWEGSC51 1 0 .56000 6.6800 92.89600   2176 152-7       
OERNST52 OROSEN51 1 0 .13600 1.3210 24.49185    720 152-4       
OERNST52 OSTEYF51 1 0 .13600 1.3210 24.49185   2080 152-5       
OERNST52 OSTEYN51 1 0 .13600 1.3650 23.65933    755 152-13      
OERNST52 OSTEYN51 2 0 .13600 1.3650 23.65933    755 152-14      
OERNST53 OGERST51 1 0 2.9620 11.060 102.6000    535 154-9       
OETZER11 OKRONS11 1 0 2.2600 32.820 383.5884   2300 434A        
OETZER11 OPOTTE11 1 0 .10000 1.0000 31.41593   1500 465         
OETZER11 OTHEIS11 1 0 4.0000 12.000 314.1593   1500 468         
OFEIST21 OOBERS21 1 0 1.2380 14.200 185.8566   2080 268         
...